Version 4
SHEET 1 880 680
WIRE 224 -64 64 -64
WIRE 432 -64 224 -64
WIRE 736 -64 512 -64
WIRE 224 -16 224 -64
WIRE 64 64 64 -64
WIRE 224 112 224 64
WIRE 368 112 224 112
WIRE 544 112 368 112
WIRE 608 112 544 112
WIRE 736 112 736 -64
WIRE 736 112 672 112
WIRE 368 144 368 112
WIRE 544 144 544 112
WIRE 224 208 224 112
WIRE 544 240 544 224
WIRE 544 240 512 240
WIRE 736 240 736 112
WIRE 736 240 704 240
WIRE 368 256 368 224
WIRE 448 256 368 256
WIRE 640 256 592 256
WIRE 544 272 512 272
WIRE 592 272 592 256
WIRE 592 272 544 272
WIRE 736 272 704 272
WIRE 368 320 368 256
WIRE 544 336 544 272
WIRE 64 448 64 144
WIRE 224 448 224 272
WIRE 368 448 368 384
WIRE 544 448 544 416
WIRE 736 448 736 272
FLAG 544 448 0
FLAG 368 448 0
FLAG 224 448 0
FLAG 736 448 0
FLAG 64 448 0
FLAG 224 -64 LOAD+
FLAG 736 -64 LOAD-
FLAG 368 256 emitter
SYMBOL res 208 -32 R0
SYMATTR InstName R1
SYMATTR Value 270
SYMBOL diode 240 272 R180
WINDOW 0 24 64 Left 2
WINDOW 3 24 0 Left 2
SYMATTR InstName D1
SYMATTR Value BZX84C10L
SYMBOL res 352 128 R0
SYMATTR InstName R2
SYMATTR Value 100k
SYMBOL res 528 128 R0
SYMATTR InstName R3
SYMATTR Value 1k
SYMBOL AutoGenerated\\X2N2646 480 256 R0
SYMATTR InstName U1
SYMBOL res 528 320 R0
SYMATTR InstName R4
SYMATTR Value 100
SYMBOL cap 352 320 R0
SYMATTR InstName C1
SYMATTR Value 10µ
SYMBOL diode 608 128 R270
WINDOW 0 32 32 VTop 2
WINDOW 3 0 32 VBottom 2
SYMATTR InstName D2
SYMATTR Value 1N4148
SYMBOL res 528 -80 R90
WINDOW 0 0 56 VBottom 2
WINDOW 3 32 56 VTop 2
SYMATTR InstName R5
SYMATTR Value 20
SYMBOL AutoGenerated\\EC103D1 672 256 R0
SYMATTR InstName U2
SYMBOL voltage 64 48 R0
SYMATTR InstName V1
SYMATTR Value PULSE(0 15 20m 1n 1n 10 15)
TEXT 224 -136 Left 2 ;UJT-SCR Time Delay Circuit
TEXT 30 472 Left 2 !.tran 2
