Version 4
SHEET 1 900 680
WIRE 176 0 -80 0
WIRE 176 48 176 0
WIRE 448 128 304 128
WIRE 480 128 448 128
WIRE 592 128 560 128
WIRE 736 128 592 128
WIRE 864 128 736 128
WIRE 448 144 448 128
WIRE 592 144 592 128
WIRE 736 144 736 128
WIRE -80 160 -80 0
WIRE 400 192 304 192
WIRE 400 240 400 192
WIRE 736 240 736 224
WIRE 736 240 400 240
WIRE 352 256 304 256
WIRE 352 288 352 256
WIRE 736 320 736 240
WIRE -80 384 -80 240
WIRE 176 384 176 336
WIRE 176 384 -80 384
WIRE 304 384 176 384
WIRE 352 384 352 368
WIRE 176 432 176 384
WIRE 304 480 304 384
WIRE 352 480 352 448
WIRE 352 480 304 480
WIRE 448 480 448 208
WIRE 448 480 352 480
WIRE 592 480 592 208
WIRE 592 480 448 480
WIRE 736 480 736 400
WIRE 736 480 592 480
FLAG 176 432 0
SYMBOL PowerProducts\\LT1074 176 192 R0
SYMATTR InstName U1
SYMBOL voltage -80 144 R0
SYMATTR InstName V1
SYMATTR Value 28
SYMBOL cap 336 384 R0
SYMATTR InstName C1
SYMATTR Value 0.01µ
SYMBOL res 336 272 R0
SYMATTR InstName R1
SYMATTR Value 2.7k
SYMBOL ind 464 144 R270
WINDOW 0 32 56 VTop 2
WINDOW 3 5 56 VBottom 2
SYMATTR InstName L1
SYMATTR Value 100µH
SYMBOL cap 576 144 R0
SYMATTR InstName C3
SYMATTR Value 1000µ
SYMBOL res 720 128 R0
SYMATTR InstName R2
SYMATTR Value 2.8k
SYMBOL res 720 304 R0
SYMATTR InstName R3
SYMATTR Value 2.2k
SYMBOL schottky 464 208 R180
WINDOW 0 24 64 Left 2
WINDOW 3 24 0 Left 2
SYMATTR InstName D1
SYMATTR Value MBR745
TEXT -88 472 Left 2 !.tran 0 0.01 0
