Version 4
SHEET 1 880 680
WIRE -48 -16 -176 -16
WIRE 176 -16 -48 -16
WIRE 176 80 176 -16
WIRE -176 192 -176 -16
WIRE -48 192 -48 -16
WIRE 48 192 -48 192
WIRE 400 192 304 192
WIRE 400 304 400 192
WIRE 176 352 176 304
WIRE -176 480 -176 272
WIRE 176 480 176 432
WIRE 176 480 -176 480
WIRE 400 480 400 384
WIRE 400 480 176 480
FLAG 400 192 Vout
FLAG -176 -16 Vin
SYMBOL PowerProducts\\LT3080 176 192 R0
SYMATTR InstName U1
SYMBOL res 160 336 R0
SYMATTR InstName R1
SYMATTR Value 0.1Meg
SYMBOL res 384 288 R0
SYMATTR InstName R2
SYMATTR Value 1k
SYMBOL voltage -176 176 R0
SYMATTR InstName V1
SYMATTR Value 20
TEXT -176 496 Left 2 !.tran 1
