Version 4
SHEET 1 880 680
WIRE 336 112 96 112
WIRE 96 144 96 112
WIRE 336 208 336 112
WIRE 96 288 96 224
WIRE 96 400 96 352
WIRE 336 400 336 288
WIRE 336 400 96 400
WIRE 96 448 96 400
FLAG 96 448 0
FLAG 96 400 MT2
SYMBOL res 80 128 R0
SYMATTR InstName R1
SYMATTR Value 1k
SYMBOL Misc\\DIAC 64 288 R0
SYMATTR InstName U1
SYMATTR Value DB3
SYMBOL voltage 336 192 R0
SYMATTR InstName V1
TEXT 112 416 Left 2 !.include st_diacs.lib
TEXT 184 72 Left 2 ;DIAC
TEXT 56 472 Left 2 !.dc V1 -100V 100V 1V
