Version 4
SHEET 1 880 680
WIRE 144 -32 80 -32
WIRE 272 -32 224 -32
WIRE 624 -32 272 -32
WIRE 272 0 272 -32
WIRE 80 128 80 -32
WIRE 272 128 272 80
WIRE 624 176 624 -32
WIRE 272 240 272 208
WIRE 400 240 272 240
WIRE 576 240 464 240
WIRE 272 272 272 240
WIRE 80 384 80 208
WIRE 272 384 272 336
WIRE 624 384 624 240
FLAG 272 384 0
FLAG 80 384 0
FLAG 80 -32 LOAD+
FLAG 272 -32 LOAD-
FLAG 624 384 0
SYMBOL res 240 -48 R90
WINDOW 0 0 56 VBottom 2
WINDOW 3 32 56 VTop 2
SYMATTR InstName R1
SYMATTR Value 100
SYMBOL res 256 -16 R0
SYMATTR InstName R2
SYMATTR Value 22k
SYMBOL res 256 112 R0
SYMATTR InstName R3
SYMATTR Value 0
SYMBOL cap 256 272 R0
SYMATTR InstName C1
SYMATTR Value 0.1µ
SYMBOL voltage 80 112 R0
SYMATTR InstName V1
SYMATTR Value SINE(0 100 60)
SYMBOL Misc\\TRIAC 592 176 R0
SYMATTR InstName U1
SYMATTR Value T405-800B
SYMBOL Misc\\DIAC 464 208 R90
WINDOW 0 0 32 VBottom 2
WINDOW 3 64 32 VTop 2
SYMATTR InstName U2
SYMATTR Value DB3TG
TEXT 24 480 Left 2 !.tran 100ms
TEXT 24 424 Left 2 !.include st_diacs.lib\n.include st_standard_snubberless_triacs.lib
